**************************************************
* OpenRAM generated memory.
* Words: 16
* Data bits: 16
* Banks: 1
* Column mux: 1:1
* Trimmed: False
* LVS: True
**************************************************
* File: DFFPOSX1.pex.netlist
* Created: Wed Jan  2 18:36:24 2008
* Program "Calibre xRC"
* Version "v2007.2_34.24"
*
.subckt dff D Q clk vdd gnd
*
MM21 Q a_66_6# gnd gnd NMOS_VTG L=5e-08 W=5e-07
MM19 a_76_6# a_2_6# a_66_6# gnd NMOS_VTG L=5e-08 W=2.5e-07
MM20 gnd Q a_76_6# gnd NMOS_VTG L=5e-08 W=2.5e-07
MM18 a_66_6# clk a_61_6# gnd NMOS_VTG L=5e-08 W=2.5e-07
MM17 a_61_6# a_34_4# gnd gnd NMOS_VTG L=5e-08 W=2.5e-07
MM10 gnd clk a_2_6# gnd NMOS_VTG L=5e-08 W=5e-07
MM16 a_34_4# a_22_6# gnd gnd NMOS_VTG L=5e-08 W=2.5e-07
MM15 gnd a_34_4# a_31_6# gnd NMOS_VTG L=5e-08 W=2.5e-07
MM14 a_31_6# clk a_22_6# gnd NMOS_VTG L=5e-08 W=2.5e-07
MM13 a_22_6# a_2_6# a_17_6# gnd NMOS_VTG L=5e-08 W=2.5e-07
MM12 a_17_6# D gnd gnd NMOS_VTG L=5e-08 W=2.5e-07
MM11 Q a_66_6# vdd vdd PMOS_VTG L=5e-08 W=1e-06
MM9 vdd Q a_76_84# vdd PMOS_VTG L=5e-08 W=2.5e-07
MM8 a_76_84# clk a_66_6# vdd PMOS_VTG L=5e-08 W=2.5e-07
MM7 a_66_6# a_2_6# a_61_74# vdd PMOS_VTG L=5e-08 W=5e-07
MM6 a_61_74# a_34_4# vdd vdd PMOS_VTG L=5e-08 W=5e-07
MM0 vdd clk a_2_6# vdd PMOS_VTG L=5e-08 W=1e-06
MM5 a_34_4# a_22_6# vdd vdd PMOS_VTG L=5e-08 W=5e-07
MM4 vdd a_34_4# a_31_74# vdd PMOS_VTG L=5e-08 W=5e-07
MM3 a_31_74# a_2_6# a_22_6# vdd PMOS_VTG L=5e-08 W=5e-07
MM2 a_22_6# clk a_17_74# vdd PMOS_VTG L=5e-08 W=5e-07
MM1 a_17_74# D vdd vdd PMOS_VTG L=5e-08 W=5e-07
* c_9 a_66_6# 0 0.271997f
* c_20 clk 0 0.350944f
* c_27 Q 0 0.202617f
* c_32 a_76_84# 0 0.0210573f
* c_38 a_76_6# 0 0.0204911f
* c_45 a_34_4# 0 0.172306f
* c_55 a_2_6# 0 0.283119f
* c_59 a_22_6# 0 0.157312f
* c_64 D 0 0.0816386f
* c_73 gnd 0 0.254131f
* c_81 vdd 0 0.23624f
*
*.include "dff.pex.netlist.dff.pxi"
*
.ends
*
*

.SUBCKT sram_mm2s_row_addr_dff
+ din_0 din_1 din_2 din_3 dout_0 dout_1 dout_2 dout_3 clk vdd gnd
* INPUT : din_0 
* INPUT : din_1 
* INPUT : din_2 
* INPUT : din_3 
* OUTPUT: dout_0 
* OUTPUT: dout_1 
* OUTPUT: dout_2 
* OUTPUT: dout_3 
* INPUT : clk 
* POWER : vdd 
* GROUND: gnd 
* rows: 4 cols: 1
Xdff_r0_c0
+ din_0 dout_0 clk vdd gnd
+ dff
Xdff_r1_c0
+ din_1 dout_1 clk vdd gnd
+ dff
Xdff_r2_c0
+ din_2 dout_2 clk vdd gnd
+ dff
Xdff_r3_c0
+ din_3 dout_3 clk vdd gnd
+ dff
.ENDS sram_mm2s_row_addr_dff

* spice ptx M{0} {1} nmos_vtg m=1 w=0.18u l=0.05u pd=0.46u ps=0.46u as=0.02p ad=0.02p

* spice ptx M{0} {1} pmos_vtg m=1 w=0.27u l=0.05u pd=0.64u ps=0.64u as=0.03p ad=0.03p

* spice ptx M{0} {1} nmos_vtg m=1 w=0.18u l=0.05u pd=0.46u ps=0.46u as=0.02p ad=0.02p

.SUBCKT sram_mm2s_pnand2_1
+ A B Z vdd gnd
* INPUT : A 
* INPUT : B 
* OUTPUT: Z 
* POWER : vdd 
* GROUND: gnd 
* size: 1
Mpnand2_pmos1 vdd A Z vdd pmos_vtg m=1 w=0.27u l=0.05u 
Mpnand2_pmos2 Z B vdd vdd pmos_vtg m=1 w=0.27u l=0.05u 
Mpnand2_nmos1 Z B net1 gnd nmos_vtg m=1 w=0.18u l=0.05u 
Mpnand2_nmos2 net1 A gnd gnd nmos_vtg m=1 w=0.18u l=0.05u 
.ENDS sram_mm2s_pnand2_1

* spice ptx M{0} {1} pmos_vtg m=1 w=0.27u l=0.05u pd=0.64u ps=0.64u as=0.03p ad=0.03p

* spice ptx M{0} {1} nmos_vtg m=1 w=0.09u l=0.05u pd=0.28u ps=0.28u as=0.01p ad=0.01p

.SUBCKT sram_mm2s_pinv_11
+ A Z vdd gnd
* INPUT : A 
* OUTPUT: Z 
* POWER : vdd 
* GROUND: gnd 
* size: 1
Mpinv_pmos Z A vdd vdd pmos_vtg m=1 w=0.27u l=0.05u 
Mpinv_nmos Z A gnd gnd nmos_vtg m=1 w=0.09u l=0.05u 
.ENDS sram_mm2s_pinv_11

* spice ptx M{0} {1} nmos_vtg m=4 w=0.27u l=0.05u pd=0.64u ps=0.64u as=0.03p ad=0.03p

* spice ptx M{0} {1} pmos_vtg m=4 w=0.81u l=0.05u pd=1.72u ps=1.72u as=0.10p ad=0.10p

.SUBCKT sram_mm2s_pinv_3
+ A Z vdd gnd
* INPUT : A 
* OUTPUT: Z 
* POWER : vdd 
* GROUND: gnd 
* size: 12
Mpinv_pmos Z A vdd vdd pmos_vtg m=4 w=0.81u l=0.05u 
Mpinv_nmos Z A gnd gnd nmos_vtg m=4 w=0.27u l=0.05u 
.ENDS sram_mm2s_pinv_3

.SUBCKT sram_mm2s_pdriver
+ A Z vdd gnd
* INPUT : A 
* OUTPUT: Z 
* POWER : vdd 
* GROUND: gnd 
* sizes: [12]
Xbuf_inv1
+ A Z vdd gnd
+ sram_mm2s_pinv_3
.ENDS sram_mm2s_pdriver

.SUBCKT sram_mm2s_pnand2_0
+ A B Z vdd gnd
* INPUT : A 
* INPUT : B 
* OUTPUT: Z 
* POWER : vdd 
* GROUND: gnd 
* size: 1
Mpnand2_pmos1 vdd A Z vdd pmos_vtg m=1 w=0.27u l=0.05u 
Mpnand2_pmos2 Z B vdd vdd pmos_vtg m=1 w=0.27u l=0.05u 
Mpnand2_nmos1 Z B net1 gnd nmos_vtg m=1 w=0.18u l=0.05u 
Mpnand2_nmos2 net1 A gnd gnd nmos_vtg m=1 w=0.18u l=0.05u 
.ENDS sram_mm2s_pnand2_0

.SUBCKT sram_mm2s_pand2
+ A B Z vdd gnd
* INPUT : A 
* INPUT : B 
* OUTPUT: Z 
* POWER : vdd 
* GROUND: gnd 
* size: 12
Xpand2_nand
+ A B zb_int vdd gnd
+ sram_mm2s_pnand2_0
Xpand2_inv
+ zb_int Z vdd gnd
+ sram_mm2s_pdriver
.ENDS sram_mm2s_pand2

.SUBCKT sram_mm2s_pinv_5
+ A Z vdd gnd
* INPUT : A 
* OUTPUT: Z 
* POWER : vdd 
* GROUND: gnd 
* size: 1
Mpinv_pmos Z A vdd vdd pmos_vtg m=1 w=0.27u l=0.05u 
Mpinv_nmos Z A gnd gnd nmos_vtg m=1 w=0.09u l=0.05u 
.ENDS sram_mm2s_pinv_5

* spice ptx M{0} {1} nmos_vtg m=2 w=0.18u l=0.05u pd=0.46u ps=0.46u as=0.02p ad=0.02p

* spice ptx M{0} {1} pmos_vtg m=2 w=0.54u l=0.05u pd=1.18u ps=1.18u as=0.07p ad=0.07p

.SUBCKT sram_mm2s_pinv_6
+ A Z vdd gnd
* INPUT : A 
* OUTPUT: Z 
* POWER : vdd 
* GROUND: gnd 
* size: 4
Mpinv_pmos Z A vdd vdd pmos_vtg m=2 w=0.54u l=0.05u 
Mpinv_nmos Z A gnd gnd nmos_vtg m=2 w=0.18u l=0.05u 
.ENDS sram_mm2s_pinv_6

* spice ptx M{0} {1} pmos_vtg m=11 w=0.9075u l=0.05u pd=1.92u ps=1.92u as=0.11p ad=0.11p

* spice ptx M{0} {1} nmos_vtg m=11 w=0.3025u l=0.05u pd=0.70u ps=0.70u as=0.04p ad=0.04p

.SUBCKT sram_mm2s_pinv_7
+ A Z vdd gnd
* INPUT : A 
* OUTPUT: Z 
* POWER : vdd 
* GROUND: gnd 
* size: 37
Mpinv_pmos Z A vdd vdd pmos_vtg m=11 w=0.9075u l=0.05u 
Mpinv_nmos Z A gnd gnd nmos_vtg m=11 w=0.3025u l=0.05u 
.ENDS sram_mm2s_pinv_7

.SUBCKT sram_mm2s_pdriver_0
+ A Z vdd gnd
* INPUT : A 
* OUTPUT: Z 
* POWER : vdd 
* GROUND: gnd 
* sizes: [1, 1, 1, 4, 12, 37]
Xbuf_inv1
+ A Zb1_int vdd gnd
+ sram_mm2s_pinv_5
Xbuf_inv2
+ Zb1_int Zb2_int vdd gnd
+ sram_mm2s_pinv_5
Xbuf_inv3
+ Zb2_int Zb3_int vdd gnd
+ sram_mm2s_pinv_5
Xbuf_inv4
+ Zb3_int Zb4_int vdd gnd
+ sram_mm2s_pinv_6
Xbuf_inv5
+ Zb4_int Zb5_int vdd gnd
+ sram_mm2s_pinv_3
Xbuf_inv6
+ Zb5_int Z vdd gnd
+ sram_mm2s_pinv_7
.ENDS sram_mm2s_pdriver_0

.SUBCKT sram_mm2s_pinv_13
+ A Z vdd gnd
* INPUT : A 
* OUTPUT: Z 
* POWER : vdd 
* GROUND: gnd 
* size: 1
Mpinv_pmos Z A vdd vdd pmos_vtg m=1 w=0.27u l=0.05u 
Mpinv_nmos Z A gnd gnd nmos_vtg m=1 w=0.09u l=0.05u 
.ENDS sram_mm2s_pinv_13

.SUBCKT sram_mm2s_delay_chain
+ in out vdd gnd
* INPUT : in 
* OUTPUT: out 
* POWER : vdd 
* GROUND: gnd 
* fanouts: [4, 4, 4, 4, 4, 4, 4, 4, 4]
Xdinv0
+ in dout_1 vdd gnd
+ sram_mm2s_pinv_13
Xdload_0_0
+ dout_1 n_0_0 vdd gnd
+ sram_mm2s_pinv_13
Xdload_0_1
+ dout_1 n_0_1 vdd gnd
+ sram_mm2s_pinv_13
Xdload_0_2
+ dout_1 n_0_2 vdd gnd
+ sram_mm2s_pinv_13
Xdload_0_3
+ dout_1 n_0_3 vdd gnd
+ sram_mm2s_pinv_13
Xdinv1
+ dout_1 dout_2 vdd gnd
+ sram_mm2s_pinv_13
Xdload_1_0
+ dout_2 n_1_0 vdd gnd
+ sram_mm2s_pinv_13
Xdload_1_1
+ dout_2 n_1_1 vdd gnd
+ sram_mm2s_pinv_13
Xdload_1_2
+ dout_2 n_1_2 vdd gnd
+ sram_mm2s_pinv_13
Xdload_1_3
+ dout_2 n_1_3 vdd gnd
+ sram_mm2s_pinv_13
Xdinv2
+ dout_2 dout_3 vdd gnd
+ sram_mm2s_pinv_13
Xdload_2_0
+ dout_3 n_2_0 vdd gnd
+ sram_mm2s_pinv_13
Xdload_2_1
+ dout_3 n_2_1 vdd gnd
+ sram_mm2s_pinv_13
Xdload_2_2
+ dout_3 n_2_2 vdd gnd
+ sram_mm2s_pinv_13
Xdload_2_3
+ dout_3 n_2_3 vdd gnd
+ sram_mm2s_pinv_13
Xdinv3
+ dout_3 dout_4 vdd gnd
+ sram_mm2s_pinv_13
Xdload_3_0
+ dout_4 n_3_0 vdd gnd
+ sram_mm2s_pinv_13
Xdload_3_1
+ dout_4 n_3_1 vdd gnd
+ sram_mm2s_pinv_13
Xdload_3_2
+ dout_4 n_3_2 vdd gnd
+ sram_mm2s_pinv_13
Xdload_3_3
+ dout_4 n_3_3 vdd gnd
+ sram_mm2s_pinv_13
Xdinv4
+ dout_4 dout_5 vdd gnd
+ sram_mm2s_pinv_13
Xdload_4_0
+ dout_5 n_4_0 vdd gnd
+ sram_mm2s_pinv_13
Xdload_4_1
+ dout_5 n_4_1 vdd gnd
+ sram_mm2s_pinv_13
Xdload_4_2
+ dout_5 n_4_2 vdd gnd
+ sram_mm2s_pinv_13
Xdload_4_3
+ dout_5 n_4_3 vdd gnd
+ sram_mm2s_pinv_13
Xdinv5
+ dout_5 dout_6 vdd gnd
+ sram_mm2s_pinv_13
Xdload_5_0
+ dout_6 n_5_0 vdd gnd
+ sram_mm2s_pinv_13
Xdload_5_1
+ dout_6 n_5_1 vdd gnd
+ sram_mm2s_pinv_13
Xdload_5_2
+ dout_6 n_5_2 vdd gnd
+ sram_mm2s_pinv_13
Xdload_5_3
+ dout_6 n_5_3 vdd gnd
+ sram_mm2s_pinv_13
Xdinv6
+ dout_6 dout_7 vdd gnd
+ sram_mm2s_pinv_13
Xdload_6_0
+ dout_7 n_6_0 vdd gnd
+ sram_mm2s_pinv_13
Xdload_6_1
+ dout_7 n_6_1 vdd gnd
+ sram_mm2s_pinv_13
Xdload_6_2
+ dout_7 n_6_2 vdd gnd
+ sram_mm2s_pinv_13
Xdload_6_3
+ dout_7 n_6_3 vdd gnd
+ sram_mm2s_pinv_13
Xdinv7
+ dout_7 dout_8 vdd gnd
+ sram_mm2s_pinv_13
Xdload_7_0
+ dout_8 n_7_0 vdd gnd
+ sram_mm2s_pinv_13
Xdload_7_1
+ dout_8 n_7_1 vdd gnd
+ sram_mm2s_pinv_13
Xdload_7_2
+ dout_8 n_7_2 vdd gnd
+ sram_mm2s_pinv_13
Xdload_7_3
+ dout_8 n_7_3 vdd gnd
+ sram_mm2s_pinv_13
Xdinv8
+ dout_8 out vdd gnd
+ sram_mm2s_pinv_13
Xdload_8_0
+ out n_8_0 vdd gnd
+ sram_mm2s_pinv_13
Xdload_8_1
+ out n_8_1 vdd gnd
+ sram_mm2s_pinv_13
Xdload_8_2
+ out n_8_2 vdd gnd
+ sram_mm2s_pinv_13
Xdload_8_3
+ out n_8_3 vdd gnd
+ sram_mm2s_pinv_13
.ENDS sram_mm2s_delay_chain

* spice ptx M{0} {1} pmos_vtg m=2 w=0.675u l=0.05u pd=1.45u ps=1.45u as=0.08p ad=0.08p

* spice ptx M{0} {1} nmos_vtg m=2 w=0.225u l=0.05u pd=0.55u ps=0.55u as=0.03p ad=0.03p

.SUBCKT sram_mm2s_pinv_8
+ A Z vdd gnd
* INPUT : A 
* OUTPUT: Z 
* POWER : vdd 
* GROUND: gnd 
* size: 5
Mpinv_pmos Z A vdd vdd pmos_vtg m=2 w=0.675u l=0.05u 
Mpinv_nmos Z A gnd gnd nmos_vtg m=2 w=0.225u l=0.05u 
.ENDS sram_mm2s_pinv_8

* spice ptx M{0} {1} nmos_vtg m=1 w=0.18u l=0.05u pd=0.46u ps=0.46u as=0.02p ad=0.02p

* spice ptx M{0} {1} pmos_vtg m=1 w=0.54u l=0.05u pd=1.18u ps=1.18u as=0.07p ad=0.07p

.SUBCKT sram_mm2s_pinv_12
+ A Z vdd gnd
* INPUT : A 
* OUTPUT: Z 
* POWER : vdd 
* GROUND: gnd 
* size: 2
Mpinv_pmos Z A vdd vdd pmos_vtg m=1 w=0.54u l=0.05u 
Mpinv_nmos Z A gnd gnd nmos_vtg m=1 w=0.18u l=0.05u 
.ENDS sram_mm2s_pinv_12

.SUBCKT sram_mm2s_pdriver_4
+ A Z vdd gnd
* INPUT : A 
* OUTPUT: Z 
* POWER : vdd 
* GROUND: gnd 
* sizes: [1, 1, 2, 5]
Xbuf_inv1
+ A Zb1_int vdd gnd
+ sram_mm2s_pinv_5
Xbuf_inv2
+ Zb1_int Zb2_int vdd gnd
+ sram_mm2s_pinv_5
Xbuf_inv3
+ Zb2_int Zb3_int vdd gnd
+ sram_mm2s_pinv_12
Xbuf_inv4
+ Zb3_int Z vdd gnd
+ sram_mm2s_pinv_8
.ENDS sram_mm2s_pdriver_4

* spice ptx M{0} {1} nmos_vtg m=1 w=0.18u l=0.05u pd=0.46u ps=0.46u as=0.02p ad=0.02p

.SUBCKT sram_mm2s_pnand3_0
+ A B C Z vdd gnd
* INPUT : A 
* INPUT : B 
* INPUT : C 
* OUTPUT: Z 
* POWER : vdd 
* GROUND: gnd 
* size: 1
Mpnand3_pmos1 vdd A Z vdd pmos_vtg m=1 w=0.27u l=0.05u 
Mpnand3_pmos2 Z B vdd vdd pmos_vtg m=1 w=0.27u l=0.05u 
Mpnand3_pmos3 Z C vdd vdd pmos_vtg m=1 w=0.27u l=0.05u 
Mpnand3_nmos1 Z C net1 gnd nmos_vtg m=1 w=0.18u l=0.05u 
Mpnand3_nmos2 net1 B net2 gnd nmos_vtg m=1 w=0.18u l=0.05u 
Mpnand3_nmos3 net2 A gnd gnd nmos_vtg m=1 w=0.18u l=0.05u 
.ENDS sram_mm2s_pnand3_0

* spice ptx M{0} {1} pmos_vtg m=5 w=0.865u l=0.05u pd=1.83u ps=1.83u as=0.11p ad=0.11p

* spice ptx M{0} {1} nmos_vtg m=5 w=0.28750000000000003u l=0.05u pd=0.68u ps=0.68u as=0.04p ad=0.04p

.SUBCKT sram_mm2s_pinv_10
+ A Z vdd gnd
* INPUT : A 
* OUTPUT: Z 
* POWER : vdd 
* GROUND: gnd 
* size: 16
Mpinv_pmos Z A vdd vdd pmos_vtg m=5 w=0.865u l=0.05u 
Mpinv_nmos Z A gnd gnd nmos_vtg m=5 w=0.28750000000000003u l=0.05u 
.ENDS sram_mm2s_pinv_10

.SUBCKT sram_mm2s_pdriver_3
+ A Z vdd gnd
* INPUT : A 
* OUTPUT: Z 
* POWER : vdd 
* GROUND: gnd 
* sizes: [16]
Xbuf_inv1
+ A Z vdd gnd
+ sram_mm2s_pinv_10
.ENDS sram_mm2s_pdriver_3

.SUBCKT sram_mm2s_pand3_0
+ A B C Z vdd gnd
* INPUT : A 
* INPUT : B 
* INPUT : C 
* OUTPUT: Z 
* POWER : vdd 
* GROUND: gnd 
* size: 16
Xpand3_nand
+ A B C zb_int vdd gnd
+ sram_mm2s_pnand3_0
Xpand3_inv
+ zb_int Z vdd gnd
+ sram_mm2s_pdriver_3
.ENDS sram_mm2s_pand3_0

.SUBCKT sram_mm2s_pinv_2
+ A Z vdd gnd
* INPUT : A 
* OUTPUT: Z 
* POWER : vdd 
* GROUND: gnd 
* size: 4
Mpinv_pmos Z A vdd vdd pmos_vtg m=2 w=0.54u l=0.05u 
Mpinv_nmos Z A gnd gnd nmos_vtg m=2 w=0.18u l=0.05u 
.ENDS sram_mm2s_pinv_2

.SUBCKT sram_mm2s_pinv_1
+ A Z vdd gnd
* INPUT : A 
* OUTPUT: Z 
* POWER : vdd 
* GROUND: gnd 
* size: 2
Mpinv_pmos Z A vdd vdd pmos_vtg m=1 w=0.54u l=0.05u 
Mpinv_nmos Z A gnd gnd nmos_vtg m=1 w=0.18u l=0.05u 
.ENDS sram_mm2s_pinv_1

.SUBCKT sram_mm2s_dff_buf_0
+ D Q Qb clk vdd gnd
* INPUT : D 
* OUTPUT: Q 
* OUTPUT: Qb 
* INPUT : clk 
* POWER : vdd 
* GROUND: gnd 
* inv1: 2 inv2: 4
Xdff_buf_dff
+ D qint clk vdd gnd
+ dff
Xdff_buf_inv1
+ qint Qb vdd gnd
+ sram_mm2s_pinv_1
Xdff_buf_inv2
+ Qb Q vdd gnd
+ sram_mm2s_pinv_2
.ENDS sram_mm2s_dff_buf_0

.SUBCKT sram_mm2s_dff_buf_array
+ din_0 dout_0 dout_bar_0 clk vdd gnd
* INPUT : din_0 
* OUTPUT: dout_0 
* OUTPUT: dout_bar_0 
* INPUT : clk 
* POWER : vdd 
* GROUND: gnd 
* rows: 1 cols: 1
* inv1: 2 inv2: 4
Xdff_r0_c0
+ din_0 dout_0 dout_bar_0 clk vdd gnd
+ sram_mm2s_dff_buf_0
.ENDS sram_mm2s_dff_buf_array

.SUBCKT sram_mm2s_pdriver_1
+ A Z vdd gnd
* INPUT : A 
* OUTPUT: Z 
* POWER : vdd 
* GROUND: gnd 
* sizes: [1, 5]
Xbuf_inv1
+ A Zb1_int vdd gnd
+ sram_mm2s_pinv_5
Xbuf_inv2
+ Zb1_int Z vdd gnd
+ sram_mm2s_pinv_8
.ENDS sram_mm2s_pdriver_1

.SUBCKT sram_mm2s_control_logic_r
+ csb clk rbl_bl s_en p_en_bar wl_en clk_buf vdd gnd
* INPUT : csb 
* INPUT : clk 
* INPUT : rbl_bl 
* OUTPUT: s_en 
* OUTPUT: p_en_bar 
* OUTPUT: wl_en 
* OUTPUT: clk_buf 
* POWER : vdd 
* GROUND: gnd 
* num_rows: 16
* words_per_row: 1
* word_size 16
Xctrl_dffs
+ csb cs_bar cs clk_buf vdd gnd
+ sram_mm2s_dff_buf_array
Xclkbuf
+ clk clk_buf vdd gnd
+ sram_mm2s_pdriver_0
Xinv_clk_bar
+ clk_buf clk_bar vdd gnd
+ sram_mm2s_pinv_11
Xand2_gated_clk_bar
+ clk_bar cs gated_clk_bar vdd gnd
+ sram_mm2s_pand2
Xand2_gated_clk_buf
+ clk_buf cs gated_clk_buf vdd gnd
+ sram_mm2s_pand2
Xbuf_wl_en
+ gated_clk_bar wl_en vdd gnd
+ sram_mm2s_pdriver_1
Xbuf_s_en_and
+ rbl_bl_delay gated_clk_bar cs s_en vdd gnd
+ sram_mm2s_pand3_0
Xdelay_chain
+ rbl_bl rbl_bl_delay vdd gnd
+ sram_mm2s_delay_chain
Xnand_p_en_bar
+ gated_clk_buf rbl_bl_delay p_en_bar_unbuf vdd gnd
+ sram_mm2s_pnand2_1
Xbuf_p_en_bar
+ p_en_bar_unbuf p_en_bar vdd gnd
+ sram_mm2s_pdriver_4
.ENDS sram_mm2s_control_logic_r

* spice ptx M{0} {1} pmos_vtg m=8 w=0.81u l=0.05u pd=1.72u ps=1.72u as=0.10p ad=0.10p

* spice ptx M{0} {1} nmos_vtg m=8 w=0.27u l=0.05u pd=0.64u ps=0.64u as=0.03p ad=0.03p

.SUBCKT sram_mm2s_pinv_9
+ A Z vdd gnd
* INPUT : A 
* OUTPUT: Z 
* POWER : vdd 
* GROUND: gnd 
* size: 24
Mpinv_pmos Z A vdd vdd pmos_vtg m=8 w=0.81u l=0.05u 
Mpinv_nmos Z A gnd gnd nmos_vtg m=8 w=0.27u l=0.05u 
.ENDS sram_mm2s_pinv_9

.SUBCKT sram_mm2s_pdriver_2
+ A Z vdd gnd
* INPUT : A 
* OUTPUT: Z 
* POWER : vdd 
* GROUND: gnd 
* sizes: [24]
Xbuf_inv1
+ A Z vdd gnd
+ sram_mm2s_pinv_9
.ENDS sram_mm2s_pdriver_2

.SUBCKT sram_mm2s_pand3
+ A B C Z vdd gnd
* INPUT : A 
* INPUT : B 
* INPUT : C 
* OUTPUT: Z 
* POWER : vdd 
* GROUND: gnd 
* size: 24
Xpand3_nand
+ A B C zb_int vdd gnd
+ sram_mm2s_pnand3_0
Xpand3_inv
+ zb_int Z vdd gnd
+ sram_mm2s_pdriver_2
.ENDS sram_mm2s_pand3

.SUBCKT sram_mm2s_control_logic_w
+ csb clk rbl_bl w_en p_en_bar wl_en clk_buf vdd gnd
* INPUT : csb 
* INPUT : clk 
* INPUT : rbl_bl 
* OUTPUT: w_en 
* OUTPUT: p_en_bar 
* OUTPUT: wl_en 
* OUTPUT: clk_buf 
* POWER : vdd 
* GROUND: gnd 
* num_rows: 16
* words_per_row: 1
* word_size 16
Xctrl_dffs
+ csb cs_bar cs clk_buf vdd gnd
+ sram_mm2s_dff_buf_array
Xclkbuf
+ clk clk_buf vdd gnd
+ sram_mm2s_pdriver_0
Xinv_clk_bar
+ clk_buf clk_bar vdd gnd
+ sram_mm2s_pinv_11
Xand2_gated_clk_bar
+ clk_bar cs gated_clk_bar vdd gnd
+ sram_mm2s_pand2
Xand2_gated_clk_buf
+ clk_buf cs gated_clk_buf vdd gnd
+ sram_mm2s_pand2
Xbuf_wl_en
+ gated_clk_bar wl_en vdd gnd
+ sram_mm2s_pdriver_1
Xrbl_bl_delay_inv
+ rbl_bl_delay rbl_bl_delay_bar vdd gnd
+ sram_mm2s_pinv_11
Xw_en_and
+ cs rbl_bl_delay_bar gated_clk_bar w_en vdd gnd
+ sram_mm2s_pand3
Xdelay_chain
+ rbl_bl rbl_bl_delay vdd gnd
+ sram_mm2s_delay_chain
Xnand_p_en_bar
+ gated_clk_buf rbl_bl_delay p_en_bar_unbuf vdd gnd
+ sram_mm2s_pnand2_1
Xbuf_p_en_bar
+ p_en_bar_unbuf p_en_bar vdd gnd
+ sram_mm2s_pdriver_4
.ENDS sram_mm2s_control_logic_w

.SUBCKT sram_mm2s_data_dff
+ din_0 din_1 din_2 din_3 din_4 din_5 din_6 din_7 din_8 din_9 din_10
+ din_11 din_12 din_13 din_14 din_15 dout_0 dout_1 dout_2 dout_3 dout_4
+ dout_5 dout_6 dout_7 dout_8 dout_9 dout_10 dout_11 dout_12 dout_13
+ dout_14 dout_15 clk vdd gnd
* INPUT : din_0 
* INPUT : din_1 
* INPUT : din_2 
* INPUT : din_3 
* INPUT : din_4 
* INPUT : din_5 
* INPUT : din_6 
* INPUT : din_7 
* INPUT : din_8 
* INPUT : din_9 
* INPUT : din_10 
* INPUT : din_11 
* INPUT : din_12 
* INPUT : din_13 
* INPUT : din_14 
* INPUT : din_15 
* OUTPUT: dout_0 
* OUTPUT: dout_1 
* OUTPUT: dout_2 
* OUTPUT: dout_3 
* OUTPUT: dout_4 
* OUTPUT: dout_5 
* OUTPUT: dout_6 
* OUTPUT: dout_7 
* OUTPUT: dout_8 
* OUTPUT: dout_9 
* OUTPUT: dout_10 
* OUTPUT: dout_11 
* OUTPUT: dout_12 
* OUTPUT: dout_13 
* OUTPUT: dout_14 
* OUTPUT: dout_15 
* INPUT : clk 
* POWER : vdd 
* GROUND: gnd 
* rows: 1 cols: 16
Xdff_r0_c0
+ din_0 dout_0 clk vdd gnd
+ dff
Xdff_r0_c1
+ din_1 dout_1 clk vdd gnd
+ dff
Xdff_r0_c2
+ din_2 dout_2 clk vdd gnd
+ dff
Xdff_r0_c3
+ din_3 dout_3 clk vdd gnd
+ dff
Xdff_r0_c4
+ din_4 dout_4 clk vdd gnd
+ dff
Xdff_r0_c5
+ din_5 dout_5 clk vdd gnd
+ dff
Xdff_r0_c6
+ din_6 dout_6 clk vdd gnd
+ dff
Xdff_r0_c7
+ din_7 dout_7 clk vdd gnd
+ dff
Xdff_r0_c8
+ din_8 dout_8 clk vdd gnd
+ dff
Xdff_r0_c9
+ din_9 dout_9 clk vdd gnd
+ dff
Xdff_r0_c10
+ din_10 dout_10 clk vdd gnd
+ dff
Xdff_r0_c11
+ din_11 dout_11 clk vdd gnd
+ dff
Xdff_r0_c12
+ din_12 dout_12 clk vdd gnd
+ dff
Xdff_r0_c13
+ din_13 dout_13 clk vdd gnd
+ dff
Xdff_r0_c14
+ din_14 dout_14 clk vdd gnd
+ dff
Xdff_r0_c15
+ din_15 dout_15 clk vdd gnd
+ dff
.ENDS sram_mm2s_data_dff

.SUBCKT sram_mm2s_pinv
+ A Z vdd gnd
* INPUT : A 
* OUTPUT: Z 
* POWER : vdd 
* GROUND: gnd 
* size: 1
Mpinv_pmos Z A vdd vdd pmos_vtg m=1 w=0.27u l=0.05u 
Mpinv_nmos Z A gnd gnd nmos_vtg m=1 w=0.09u l=0.05u 
.ENDS sram_mm2s_pinv

.SUBCKT sram_mm2s_pnand2
+ A B Z vdd gnd
* INPUT : A 
* INPUT : B 
* OUTPUT: Z 
* POWER : vdd 
* GROUND: gnd 
* size: 1
Mpnand2_pmos1 vdd A Z vdd pmos_vtg m=1 w=0.27u l=0.05u 
Mpnand2_pmos2 Z B vdd vdd pmos_vtg m=1 w=0.27u l=0.05u 
Mpnand2_nmos1 Z B net1 gnd nmos_vtg m=1 w=0.18u l=0.05u 
Mpnand2_nmos2 net1 A gnd gnd nmos_vtg m=1 w=0.18u l=0.05u 
.ENDS sram_mm2s_pnand2

.SUBCKT sram_mm2s_and2_dec
+ A B Z vdd gnd
* INPUT : A 
* INPUT : B 
* OUTPUT: Z 
* POWER : vdd 
* GROUND: gnd 
* size: 1
Xpand2_dec_nand
+ A B zb_int vdd gnd
+ sram_mm2s_pnand2
Xpand2_dec_inv
+ zb_int Z vdd gnd
+ sram_mm2s_pinv
.ENDS sram_mm2s_and2_dec

.SUBCKT sram_mm2s_hierarchical_predecode2x4
+ in_0 in_1 out_0 out_1 out_2 out_3 vdd gnd
* INPUT : in_0 
* INPUT : in_1 
* OUTPUT: out_0 
* OUTPUT: out_1 
* OUTPUT: out_2 
* OUTPUT: out_3 
* POWER : vdd 
* GROUND: gnd 
Xpre_inv_0
+ in_0 inbar_0 vdd gnd
+ sram_mm2s_pinv
Xpre_inv_1
+ in_1 inbar_1 vdd gnd
+ sram_mm2s_pinv
XXpre2x4_and_0
+ inbar_0 inbar_1 out_0 vdd gnd
+ sram_mm2s_and2_dec
XXpre2x4_and_1
+ in_0 inbar_1 out_1 vdd gnd
+ sram_mm2s_and2_dec
XXpre2x4_and_2
+ inbar_0 in_1 out_2 vdd gnd
+ sram_mm2s_and2_dec
XXpre2x4_and_3
+ in_0 in_1 out_3 vdd gnd
+ sram_mm2s_and2_dec
.ENDS sram_mm2s_hierarchical_predecode2x4

.SUBCKT sram_mm2s_hierarchical_decoder
+ addr_0 addr_1 addr_2 addr_3 decode_0 decode_1 decode_2 decode_3
+ decode_4 decode_5 decode_6 decode_7 decode_8 decode_9 decode_10
+ decode_11 decode_12 decode_13 decode_14 decode_15 vdd gnd
* INPUT : addr_0 
* INPUT : addr_1 
* INPUT : addr_2 
* INPUT : addr_3 
* OUTPUT: decode_0 
* OUTPUT: decode_1 
* OUTPUT: decode_2 
* OUTPUT: decode_3 
* OUTPUT: decode_4 
* OUTPUT: decode_5 
* OUTPUT: decode_6 
* OUTPUT: decode_7 
* OUTPUT: decode_8 
* OUTPUT: decode_9 
* OUTPUT: decode_10 
* OUTPUT: decode_11 
* OUTPUT: decode_12 
* OUTPUT: decode_13 
* OUTPUT: decode_14 
* OUTPUT: decode_15 
* POWER : vdd 
* GROUND: gnd 
Xpre_0
+ addr_0 addr_1 out_0 out_1 out_2 out_3 vdd gnd
+ sram_mm2s_hierarchical_predecode2x4
Xpre_1
+ addr_2 addr_3 out_4 out_5 out_6 out_7 vdd gnd
+ sram_mm2s_hierarchical_predecode2x4
XDEC_AND_0
+ out_0 out_4 decode_0 vdd gnd
+ sram_mm2s_and2_dec
XDEC_AND_4
+ out_0 out_5 decode_4 vdd gnd
+ sram_mm2s_and2_dec
XDEC_AND_8
+ out_0 out_6 decode_8 vdd gnd
+ sram_mm2s_and2_dec
XDEC_AND_12
+ out_0 out_7 decode_12 vdd gnd
+ sram_mm2s_and2_dec
XDEC_AND_1
+ out_1 out_4 decode_1 vdd gnd
+ sram_mm2s_and2_dec
XDEC_AND_5
+ out_1 out_5 decode_5 vdd gnd
+ sram_mm2s_and2_dec
XDEC_AND_9
+ out_1 out_6 decode_9 vdd gnd
+ sram_mm2s_and2_dec
XDEC_AND_13
+ out_1 out_7 decode_13 vdd gnd
+ sram_mm2s_and2_dec
XDEC_AND_2
+ out_2 out_4 decode_2 vdd gnd
+ sram_mm2s_and2_dec
XDEC_AND_6
+ out_2 out_5 decode_6 vdd gnd
+ sram_mm2s_and2_dec
XDEC_AND_10
+ out_2 out_6 decode_10 vdd gnd
+ sram_mm2s_and2_dec
XDEC_AND_14
+ out_2 out_7 decode_14 vdd gnd
+ sram_mm2s_and2_dec
XDEC_AND_3
+ out_3 out_4 decode_3 vdd gnd
+ sram_mm2s_and2_dec
XDEC_AND_7
+ out_3 out_5 decode_7 vdd gnd
+ sram_mm2s_and2_dec
XDEC_AND_11
+ out_3 out_6 decode_11 vdd gnd
+ sram_mm2s_and2_dec
XDEC_AND_15
+ out_3 out_7 decode_15 vdd gnd
+ sram_mm2s_and2_dec
.ENDS sram_mm2s_hierarchical_decoder

* spice ptx M{0} {1} nmos_vtg m=3 w=0.12u l=0.05u pd=0.34u ps=0.34u as=0.01p ad=0.01p

* spice ptx M{0} {1} pmos_vtg m=3 w=0.36u l=0.05u pd=0.82u ps=0.82u as=0.04p ad=0.04p

.SUBCKT sram_mm2s_pinv_0
+ A Z vdd gnd
* INPUT : A 
* OUTPUT: Z 
* POWER : vdd 
* GROUND: gnd 
* size: 4
Mpinv_pmos Z A vdd vdd pmos_vtg m=3 w=0.36u l=0.05u 
Mpinv_nmos Z A gnd gnd nmos_vtg m=3 w=0.12u l=0.05u 
.ENDS sram_mm2s_pinv_0

.SUBCKT sram_mm2s_wordline_driver
+ A B Z vdd gnd
* INPUT : A 
* INPUT : B 
* OUTPUT: Z 
* POWER : vdd 
* GROUND: gnd 
* cols: 16
Xwld_nand
+ A B zb_int vdd gnd
+ sram_mm2s_pnand2
Xwl_driver
+ zb_int Z vdd gnd
+ sram_mm2s_pinv_0
.ENDS sram_mm2s_wordline_driver

.SUBCKT sram_mm2s_wordline_driver_array
+ in_0 in_1 in_2 in_3 in_4 in_5 in_6 in_7 in_8 in_9 in_10 in_11 in_12
+ in_13 in_14 in_15 wl_0 wl_1 wl_2 wl_3 wl_4 wl_5 wl_6 wl_7 wl_8 wl_9
+ wl_10 wl_11 wl_12 wl_13 wl_14 wl_15 en vdd gnd
* INPUT : in_0 
* INPUT : in_1 
* INPUT : in_2 
* INPUT : in_3 
* INPUT : in_4 
* INPUT : in_5 
* INPUT : in_6 
* INPUT : in_7 
* INPUT : in_8 
* INPUT : in_9 
* INPUT : in_10 
* INPUT : in_11 
* INPUT : in_12 
* INPUT : in_13 
* INPUT : in_14 
* INPUT : in_15 
* OUTPUT: wl_0 
* OUTPUT: wl_1 
* OUTPUT: wl_2 
* OUTPUT: wl_3 
* OUTPUT: wl_4 
* OUTPUT: wl_5 
* OUTPUT: wl_6 
* OUTPUT: wl_7 
* OUTPUT: wl_8 
* OUTPUT: wl_9 
* OUTPUT: wl_10 
* OUTPUT: wl_11 
* OUTPUT: wl_12 
* OUTPUT: wl_13 
* OUTPUT: wl_14 
* OUTPUT: wl_15 
* INPUT : en 
* POWER : vdd 
* GROUND: gnd 
* rows: 16 cols: 16
Xwl_driver_and0
+ in_0 en wl_0 vdd gnd
+ sram_mm2s_wordline_driver
Xwl_driver_and1
+ in_1 en wl_1 vdd gnd
+ sram_mm2s_wordline_driver
Xwl_driver_and2
+ in_2 en wl_2 vdd gnd
+ sram_mm2s_wordline_driver
Xwl_driver_and3
+ in_3 en wl_3 vdd gnd
+ sram_mm2s_wordline_driver
Xwl_driver_and4
+ in_4 en wl_4 vdd gnd
+ sram_mm2s_wordline_driver
Xwl_driver_and5
+ in_5 en wl_5 vdd gnd
+ sram_mm2s_wordline_driver
Xwl_driver_and6
+ in_6 en wl_6 vdd gnd
+ sram_mm2s_wordline_driver
Xwl_driver_and7
+ in_7 en wl_7 vdd gnd
+ sram_mm2s_wordline_driver
Xwl_driver_and8
+ in_8 en wl_8 vdd gnd
+ sram_mm2s_wordline_driver
Xwl_driver_and9
+ in_9 en wl_9 vdd gnd
+ sram_mm2s_wordline_driver
Xwl_driver_and10
+ in_10 en wl_10 vdd gnd
+ sram_mm2s_wordline_driver
Xwl_driver_and11
+ in_11 en wl_11 vdd gnd
+ sram_mm2s_wordline_driver
Xwl_driver_and12
+ in_12 en wl_12 vdd gnd
+ sram_mm2s_wordline_driver
Xwl_driver_and13
+ in_13 en wl_13 vdd gnd
+ sram_mm2s_wordline_driver
Xwl_driver_and14
+ in_14 en wl_14 vdd gnd
+ sram_mm2s_wordline_driver
Xwl_driver_and15
+ in_15 en wl_15 vdd gnd
+ sram_mm2s_wordline_driver
.ENDS sram_mm2s_wordline_driver_array

.SUBCKT sram_mm2s_and2_dec_0
+ A B Z vdd gnd
* INPUT : A 
* INPUT : B 
* OUTPUT: Z 
* POWER : vdd 
* GROUND: gnd 
* size: 4
Xpand2_dec_nand
+ A B zb_int vdd gnd
+ sram_mm2s_pnand2
Xpand2_dec_inv
+ zb_int Z vdd gnd
+ sram_mm2s_pinv_0
.ENDS sram_mm2s_and2_dec_0

.SUBCKT sram_mm2s_port_address_0
+ addr_0 addr_1 addr_2 addr_3 wl_en wl_0 wl_1 wl_2 wl_3 wl_4 wl_5 wl_6
+ wl_7 wl_8 wl_9 wl_10 wl_11 wl_12 wl_13 wl_14 wl_15 rbl_wl vdd gnd
* INPUT : addr_0 
* INPUT : addr_1 
* INPUT : addr_2 
* INPUT : addr_3 
* INPUT : wl_en 
* OUTPUT: wl_0 
* OUTPUT: wl_1 
* OUTPUT: wl_2 
* OUTPUT: wl_3 
* OUTPUT: wl_4 
* OUTPUT: wl_5 
* OUTPUT: wl_6 
* OUTPUT: wl_7 
* OUTPUT: wl_8 
* OUTPUT: wl_9 
* OUTPUT: wl_10 
* OUTPUT: wl_11 
* OUTPUT: wl_12 
* OUTPUT: wl_13 
* OUTPUT: wl_14 
* OUTPUT: wl_15 
* OUTPUT: rbl_wl 
* POWER : vdd 
* GROUND: gnd 
Xrow_decoder
+ addr_0 addr_1 addr_2 addr_3 dec_out_0 dec_out_1 dec_out_2 dec_out_3
+ dec_out_4 dec_out_5 dec_out_6 dec_out_7 dec_out_8 dec_out_9 dec_out_10
+ dec_out_11 dec_out_12 dec_out_13 dec_out_14 dec_out_15 vdd gnd
+ sram_mm2s_hierarchical_decoder
Xwordline_driver
+ dec_out_0 dec_out_1 dec_out_2 dec_out_3 dec_out_4 dec_out_5 dec_out_6
+ dec_out_7 dec_out_8 dec_out_9 dec_out_10 dec_out_11 dec_out_12
+ dec_out_13 dec_out_14 dec_out_15 wl_0 wl_1 wl_2 wl_3 wl_4 wl_5 wl_6
+ wl_7 wl_8 wl_9 wl_10 wl_11 wl_12 wl_13 wl_14 wl_15 wl_en vdd gnd
+ sram_mm2s_wordline_driver_array
Xrbl_driver
+ wl_en vdd rbl_wl vdd gnd
+ sram_mm2s_and2_dec_0
.ENDS sram_mm2s_port_address_0

.SUBCKT sram_mm2s_precharge_1
+ bl br en_bar vdd
* OUTPUT: bl 
* OUTPUT: br 
* INPUT : en_bar 
* POWER : vdd 
Mlower_pmos bl en_bar br vdd pmos_vtg m=1 w=0.27u l=0.05u 
Mupper_pmos1 bl en_bar vdd vdd pmos_vtg m=1 w=0.27u l=0.05u 
Mupper_pmos2 br en_bar vdd vdd pmos_vtg m=1 w=0.27u l=0.05u 
.ENDS sram_mm2s_precharge_1

.SUBCKT sram_mm2s_precharge_array_0
+ bl_0 br_0 bl_1 br_1 bl_2 br_2 bl_3 br_3 bl_4 br_4 bl_5 br_5 bl_6 br_6
+ bl_7 br_7 bl_8 br_8 bl_9 br_9 bl_10 br_10 bl_11 br_11 bl_12 br_12
+ bl_13 br_13 bl_14 br_14 bl_15 br_15 bl_16 br_16 en_bar vdd
* OUTPUT: bl_0 
* OUTPUT: br_0 
* OUTPUT: bl_1 
* OUTPUT: br_1 
* OUTPUT: bl_2 
* OUTPUT: br_2 
* OUTPUT: bl_3 
* OUTPUT: br_3 
* OUTPUT: bl_4 
* OUTPUT: br_4 
* OUTPUT: bl_5 
* OUTPUT: br_5 
* OUTPUT: bl_6 
* OUTPUT: br_6 
* OUTPUT: bl_7 
* OUTPUT: br_7 
* OUTPUT: bl_8 
* OUTPUT: br_8 
* OUTPUT: bl_9 
* OUTPUT: br_9 
* OUTPUT: bl_10 
* OUTPUT: br_10 
* OUTPUT: bl_11 
* OUTPUT: br_11 
* OUTPUT: bl_12 
* OUTPUT: br_12 
* OUTPUT: bl_13 
* OUTPUT: br_13 
* OUTPUT: bl_14 
* OUTPUT: br_14 
* OUTPUT: bl_15 
* OUTPUT: br_15 
* OUTPUT: bl_16 
* OUTPUT: br_16 
* INPUT : en_bar 
* POWER : vdd 
* cols: 17 size: 1 bl: bl1 br: br1
Xpre_column_0
+ bl_0 br_0 en_bar vdd
+ sram_mm2s_precharge_1
Xpre_column_1
+ bl_1 br_1 en_bar vdd
+ sram_mm2s_precharge_1
Xpre_column_2
+ bl_2 br_2 en_bar vdd
+ sram_mm2s_precharge_1
Xpre_column_3
+ bl_3 br_3 en_bar vdd
+ sram_mm2s_precharge_1
Xpre_column_4
+ bl_4 br_4 en_bar vdd
+ sram_mm2s_precharge_1
Xpre_column_5
+ bl_5 br_5 en_bar vdd
+ sram_mm2s_precharge_1
Xpre_column_6
+ bl_6 br_6 en_bar vdd
+ sram_mm2s_precharge_1
Xpre_column_7
+ bl_7 br_7 en_bar vdd
+ sram_mm2s_precharge_1
Xpre_column_8
+ bl_8 br_8 en_bar vdd
+ sram_mm2s_precharge_1
Xpre_column_9
+ bl_9 br_9 en_bar vdd
+ sram_mm2s_precharge_1
Xpre_column_10
+ bl_10 br_10 en_bar vdd
+ sram_mm2s_precharge_1
Xpre_column_11
+ bl_11 br_11 en_bar vdd
+ sram_mm2s_precharge_1
Xpre_column_12
+ bl_12 br_12 en_bar vdd
+ sram_mm2s_precharge_1
Xpre_column_13
+ bl_13 br_13 en_bar vdd
+ sram_mm2s_precharge_1
Xpre_column_14
+ bl_14 br_14 en_bar vdd
+ sram_mm2s_precharge_1
Xpre_column_15
+ bl_15 br_15 en_bar vdd
+ sram_mm2s_precharge_1
Xpre_column_16
+ bl_16 br_16 en_bar vdd
+ sram_mm2s_precharge_1
.ENDS sram_mm2s_precharge_array_0

.SUBCKT sense_amp bl br dout en vdd gnd
M_1 dint net_1 vdd vdd pmos_vtg w=540.0n l=50.0n
M_3 net_1 dint vdd vdd pmos_vtg w=540.0n l=50.0n
M_2 dint net_1 net_2 gnd nmos_vtg w=270.0n l=50.0n
M_8 net_1 dint net_2 gnd nmos_vtg w=270.0n l=50.0n
M_5 bl en dint vdd pmos_vtg w=720.0n l=50.0n
M_6 br en net_1 vdd pmos_vtg w=720.0n l=50.0n
M_7 net_2 en gnd gnd nmos_vtg w=270.0n l=50.0n

M_9 dout_bar dint vdd vdd pmos_vtg w=180.0n l=50.0n
M_10 dout_bar dint gnd gnd nmos_vtg w=90.0n l=50.0n
M_11 dout dout_bar vdd vdd pmos_vtg w=540.0n l=50.0n
M_12 dout dout_bar gnd gnd nmos_vtg w=270.0n l=50.0n
.ENDS sense_amp


.SUBCKT sram_mm2s_sense_amp_array
+ data_0 bl_0 br_0 data_1 bl_1 br_1 data_2 bl_2 br_2 data_3 bl_3 br_3
+ data_4 bl_4 br_4 data_5 bl_5 br_5 data_6 bl_6 br_6 data_7 bl_7 br_7
+ data_8 bl_8 br_8 data_9 bl_9 br_9 data_10 bl_10 br_10 data_11 bl_11
+ br_11 data_12 bl_12 br_12 data_13 bl_13 br_13 data_14 bl_14 br_14
+ data_15 bl_15 br_15 en vdd gnd
* OUTPUT: data_0 
* INPUT : bl_0 
* INPUT : br_0 
* OUTPUT: data_1 
* INPUT : bl_1 
* INPUT : br_1 
* OUTPUT: data_2 
* INPUT : bl_2 
* INPUT : br_2 
* OUTPUT: data_3 
* INPUT : bl_3 
* INPUT : br_3 
* OUTPUT: data_4 
* INPUT : bl_4 
* INPUT : br_4 
* OUTPUT: data_5 
* INPUT : bl_5 
* INPUT : br_5 
* OUTPUT: data_6 
* INPUT : bl_6 
* INPUT : br_6 
* OUTPUT: data_7 
* INPUT : bl_7 
* INPUT : br_7 
* OUTPUT: data_8 
* INPUT : bl_8 
* INPUT : br_8 
* OUTPUT: data_9 
* INPUT : bl_9 
* INPUT : br_9 
* OUTPUT: data_10 
* INPUT : bl_10 
* INPUT : br_10 
* OUTPUT: data_11 
* INPUT : bl_11 
* INPUT : br_11 
* OUTPUT: data_12 
* INPUT : bl_12 
* INPUT : br_12 
* OUTPUT: data_13 
* INPUT : bl_13 
* INPUT : br_13 
* OUTPUT: data_14 
* INPUT : bl_14 
* INPUT : br_14 
* OUTPUT: data_15 
* INPUT : bl_15 
* INPUT : br_15 
* INPUT : en 
* POWER : vdd 
* GROUND: gnd 
* word_size 16
* words_per_row: 1
Xsa_d0
+ bl_0 br_0 data_0 en vdd gnd
+ sense_amp
Xsa_d1
+ bl_1 br_1 data_1 en vdd gnd
+ sense_amp
Xsa_d2
+ bl_2 br_2 data_2 en vdd gnd
+ sense_amp
Xsa_d3
+ bl_3 br_3 data_3 en vdd gnd
+ sense_amp
Xsa_d4
+ bl_4 br_4 data_4 en vdd gnd
+ sense_amp
Xsa_d5
+ bl_5 br_5 data_5 en vdd gnd
+ sense_amp
Xsa_d6
+ bl_6 br_6 data_6 en vdd gnd
+ sense_amp
Xsa_d7
+ bl_7 br_7 data_7 en vdd gnd
+ sense_amp
Xsa_d8
+ bl_8 br_8 data_8 en vdd gnd
+ sense_amp
Xsa_d9
+ bl_9 br_9 data_9 en vdd gnd
+ sense_amp
Xsa_d10
+ bl_10 br_10 data_10 en vdd gnd
+ sense_amp
Xsa_d11
+ bl_11 br_11 data_11 en vdd gnd
+ sense_amp
Xsa_d12
+ bl_12 br_12 data_12 en vdd gnd
+ sense_amp
Xsa_d13
+ bl_13 br_13 data_13 en vdd gnd
+ sense_amp
Xsa_d14
+ bl_14 br_14 data_14 en vdd gnd
+ sense_amp
Xsa_d15